Python codes to process satellite observations and GEOS-Chem model outputs.
